*Heading
** Job name: MassScaleConvergence Model name: Model-1
** Generated by: Abaqus/CAE 2025
*Preprint, echo=NO, model=NO, history=NO, contact=NO
**
** PARTS
**
*Part, name=RockwellIndenter
*End Part
**  
*Part, name=Substrate
*Node
      1,  0.239999995,  0.439999998,         2.75
      2,           0.,  0.439999998,         2.75
      3,           0.,           0.,         2.75
      4,  0.239999995,           0.,         2.75
      5,  0.239999995,  0.439999998,         0.25
      6,           0.,  0.439999998,         0.25
      7,           0.,           0.,         0.25
      8,  0.239999995,           0.,         0.25
      9,  0.239999995,          0.5,         2.75
     10,           0.,          0.5,         2.75
     11,  0.239999995,          0.5,         0.25
     12,           0.,          0.5,         0.25
     13,  0.239999995,          0.5,           3.
     14,           0.,          0.5,           3.
     15,           0.,           0.,           3.
     16,  0.239999995,           0.,           3.
     17,  0.600000024,          0.5,         2.75
     18,  0.600000024,          0.5,           3.
     19,  0.600000024,           0.,           3.
     20,  0.600000024,           0.,         2.75
** ... 12499 like lines cut
*Element, type=C3D8R
   1,   282,  2103,  6201,  1113,     1,    29,  1023,    56
   2,  2103,  2104,  6202,  6201,    29,    30,  1024,  1023
   3,  2104,  2105,  6203,  6202,    30,    31,  1025,  1024
   4,  2105,  2106,  6204,  6203,    31,    32,  1026,  1025
   5,  2106,  2107,  6205,  6204,    32,    33,  1027,  1026
   6,  2107,  2108,  6206,  6205,    33,    34,  1028,  1027
   7,  2108,  2109,  6207,  6206,    34,    35,  1029,  1028
   8,  2109,  2110,  6208,  6207,    35,    36,  1030,  1029
   9,  2110,  2111,  6209,  6208,    36,    37,  1031,  1030
  10,  2111,   382,  1608,  6209,    37,     2,    38,  1031
  11,  1113,  6201,  6210,  1114,    56,  1023,  1032,    55
  12,  6201,  6202,  6211,  6210,  1023,  1024,  1033,  1032
  13,  6202,  6203,  6212,  6211,  1024,  1025,  1034,  1033
  14,  6203,  6204,  6213,  6212,  1025,  1026,  1035,  1034
  15,  6204,  6205,  6214,  6213,  1026,  1027,  1036,  1035
  16,  6205,  6206,  6215,  6214,  1027,  1028,  1037,  1036
  17,  6206,  6207,  6216,  6215,  1028,  1029,  1038,  1037
  18,  6207,  6208,  6217,  6216,  1029,  1030,  1039,  1038
  19,  6208,  6209,  6218,  6217,  1030,  1031,  1040,  1039
  20,  6209,  1608,  1609,  6218,  1031,    38,    39,  1040
** ... 10156 like lines cut
*Nset, nset=SubstrateSet, generate
     1,  12519,      1
*Elset, elset=SubstrateSet, generate
     1,  10176,      1
*Nset, nset=RefinedArea
     1,     2,     5,     6,     9,    10,    11,    12,    29,    30,    31,    32,    33,    34,    35,    36
    37,    57,    58,    59,    60,    61,    62,    63,    64,    65,   184,   185,   186,   187,   188,   189
   190,   191,   192,   193,   194,   195,   196,   197,   198,   199,   200,   201,   202,   203,   204,   205
   206,   207,   208,   209,   210,   211,   212,   213,   214,   215,   216,   217,   218,   219,   220,   221
   222,   223,   224,   225,   226,   227,   228,   229,   230,   231,   232,   233,   234,   235,   236,   237
   238,   239,   240,   241,   242,   243,   244,   245,   246,   247,   248,   249,   250,   251,   252,   253
   254,   255,   256,   257,   258,   259,   260,   261,   262,   263,   264,   265,   266,   267,   268,   269
   270,   271,   272,   273,   274,   275,   276,   277,   278,   279,   280,   281,   282,   382,   383,   384
   385,   386,   387,   388,   389,   390,   391,   392,   393,   394,   395,   396,   397,   398,   399,   400
   401,   402,   403,   404,   405,   406,   407,   408,   409,   410,   411,   412,   413,   414,   415,   416
   417,   418,   419,   420,   421,   422,   423,   424,   425,   426,   427,   428,   429,   430,   431,   432
   433,   434,   435,   436,   437,   438,   439,   440,   441,   442,   443,   444,   445,   446,   447,   448
   449,   450,   451,   452,   453,   454,   455,   456,   457,   458,   459,   460,   461,   462,   463,   464
   465,   466,   467,   468,   469,   470,   471,   472,   473,   474,   475,   476,   477,   478,   479,   480
   481,   482,   483,   484,   485,   486,   487,   488,   489,   490,   491,   492,   493,   494,   495,   496
   497,   498,   499,   500,   501,   502,   503,   504,   505,   506,   507,   508,   509,   510,   511,   512
   513,   514,   515,   516,   517,   518,   519,   520,   521,   522,   523,   524,   525,   526,   527,   528
   529,   530,   531,   532,   533,   534,   535,   536,   537,   538,   539,   540,   541,   542,   543,   544
   545,   546,   547,   548,   549,   550,   551,   552,   553,   554,   555,   556,   557,   558,   559,   560
   561,   562,   563,   564,   565,   566,   567,   568,   569,   570,   571,   572,   573,   574,   575,   576
** ... 189 like lines cut
*Elset, elset=RefinedArea, generate
 6001,  8000,     1
** Section: SubstrateSection
*Solid Section, elset=SubstrateSet, controls=EC-1, material=SubstrateMaterial
,
*End Part
**  
**
** ASSEMBLY
**
*Assembly, name=Assembly
**  
*Instance, name=RockwellIndenterInst, part=RockwellIndenter
          0.,          0.5,         0.25
*Node
      1, -3.67394056e-17,           0.,           0.
*Nset, nset=RockwellIndenterInst-RefPt_, internal
1, 
*Nset, nset=RockwellIndenterSet
 1,
*Surface, type=REVOLUTION, name=m_Surf-1
START, 0.533012701892219, 0.276794919243112
 LINE,          0.1, 0.0267949192431123
 CIRCL,           0.,           0.,           0.,          0.2
*Rigid Body, ref node=RockwellIndenterInst-RefPt_, analytical surface=m_Surf-1
*Element, type=MASS, elset=RockwellIndenterSet_IndenterInertia_
1, 1
*Mass, elset=RockwellIndenterSet_IndenterInertia_
1., 
*End Instance
**  
*Instance, name=SubstrateInst, part=Substrate
*End Instance
**  
*Nset, nset=ALE_Domain, instance=SubstrateInst, generate
     1,  12519,      1
*Elset, elset=ALE_Domain, instance=SubstrateInst, generate
     1,  10176,      1
*Nset, nset=FIXEDBCSET, instance=SubstrateInst
    3,    4,    7,    8,   15,   16,   19,   20,   22,   24,   25,   27,   43,   44,   45,   46
   47,   48,   49,   50,   51,   71,   72,   73,   74,   75,   76,   77,   78,   79,   85,   86
   87,   88,   89,   90,   91,   92,   93,   94,   95,   96,   97,   98,   99,  100,  101,  102
  103,  104,  105,  106,  107,  108,  109,  110,  111,  112,  113,  114,  115,  116,  117,  118
  119,  120,  121,  122,  123,  124,  125,  126,  127,  128,  129,  130,  131,  132,  133,  134
  135,  136,  137,  138,  139,  140,  141,  142,  143,  144,  145,  146,  147,  148,  149,  150
  151,  152,  153,  154,  155,  156,  157,  158,  159,  160,  161,  162,  163,  164,  165,  166
  167,  168,  169,  170,  171,  172,  173,  174,  175,  176,  177,  178,  179,  180,  181,  182
  183,  283,  284,  285,  286,  287,  288,  289,  290,  291,  292,  293,  294,  295,  296,  297
  298,  299,  300,  301,  302,  303,  304,  305,  306,  307,  308,  309,  310,  311,  312,  313
  314,  315,  316,  317,  318,  319,  320,  321,  322,  323,  324,  325,  326,  327,  328,  329
  330,  331,  332,  333,  334,  335,  336,  337,  338,  339,  340,  341,  342,  343,  344,  345
  346,  347,  348,  349,  350,  351,  352,  353,  354,  355,  356,  357,  358,  359,  360,  361
  362,  363,  364,  365,  366,  367,  368,  369,  370,  371,  372,  373,  374,  375,  376,  377
  378,  379,  380,  381,  717,  718,  719,  720,  721,  722,  723,  724,  725,  733,  734,  737
  738,  745,  746,  747,  748,  764,  780,  788,  789,  792,  793,  796,  797,  798,  799,  800
  801,  802,  803,  804,  805,  806,  807,  808,  809,  810,  811,  812,  813,  814,  815,  816
  817,  818,  819,  820,  821,  822,  823,  824,  825,  826,  827,  828,  829,  830,  831,  832
  833,  834,  835,  836,  837,  838,  839,  840,  841,  842,  843,  844,  845,  846,  847,  848
  849,  850,  851,  852,  853,  854,  855,  856,  857,  858,  859,  860,  861,  862,  863,  864
** ... 67 like lines cut
*Elset, elset=FIXEDBCSET, instance=SubstrateInst
   51,   52,   53,   54,   55,   56,   57,   58,   59,   60,  111,  112,  113,  114,  115,  116
  117,  118,  119,  120,  171,  172,  173,  174,  175,  176,  177,  178,  179,  180,  231,  232
  233,  234,  235,  236,  237,  238,  239,  240,  291,  292,  293,  294,  295,  296,  297,  298
  299,  300,  351,  352,  353,  354,  355,  356,  357,  358,  359,  360,  411,  412,  413,  414
  415,  416,  417,  418,  419,  420,  471,  472,  473,  474,  475,  476,  477,  478,  479,  480
  531,  532,  533,  534,  535,  536,  537,  538,  539,  540,  591,  592,  593,  594,  595,  596
  597,  598,  599,  600,  651,  652,  653,  654,  655,  656,  657,  658,  659,  660,  711,  712
  713,  714,  715,  716,  717,  718,  719,  720,  771,  772,  773,  774,  775,  776,  777,  778
  779,  780,  831,  832,  833,  834,  835,  836,  837,  838,  839,  840,  891,  892,  893,  894
  895,  896,  897,  898,  899,  900,  951,  952,  953,  954,  955,  956,  957,  958,  959,  960
 1011, 1012, 1013, 1014, 1015, 1016, 1017, 1018, 1019, 1020, 1071, 1072, 1073, 1074, 1075, 1076
 1077, 1078, 1079, 1080, 1131, 1132, 1133, 1134, 1135, 1136, 1137, 1138, 1139, 1140, 1191, 1192
 1193, 1194, 1195, 1196, 1197, 1198, 1199, 1200, 1251, 1252, 1253, 1254, 1255, 1256, 1257, 1258
 1259, 1260, 1311, 1312, 1313, 1314, 1315, 1316, 1317, 1318, 1319, 1320, 1371, 1372, 1373, 1374
 1375, 1376, 1377, 1378, 1379, 1380, 1431, 1432, 1433, 1434, 1435, 1436, 1437, 1438, 1439, 1440
 1491, 1492, 1493, 1494, 1495, 1496, 1497, 1498, 1499, 1500, 1551, 1552, 1553, 1554, 1555, 1556
 1557, 1558, 1559, 1560, 1611, 1612, 1613, 1614, 1615, 1616, 1617, 1618, 1619, 1620, 1671, 1672
 1673, 1674, 1675, 1676, 1677, 1678, 1679, 1680, 1731, 1732, 1733, 1734, 1735, 1736, 1737, 1738
 1739, 1740, 1791, 1792, 1793, 1794, 1795, 1796, 1797, 1798, 1799, 1800, 1851, 1852, 1853, 1854
 1855, 1856, 1857, 1858, 1859, 1860, 1911, 1912, 1913, 1914, 1915, 1916, 1917, 1918, 1919, 1920
** ... 60 like lines cut
*Nset, nset=XsymmetryBCSet, instance=SubstrateInst
    2,    3,    6,    7,   10,   12,   14,   15,   27,   28,   38,   39,   40,   41,   42,   66
   67,   68,   69,   70,  283,  284,  285,  286,  287,  288,  289,  290,  291,  292,  293,  294
  295,  296,  297,  298,  299,  300,  301,  302,  303,  304,  305,  306,  307,  308,  309,  310
  311,  312,  313,  314,  315,  316,  317,  318,  319,  320,  321,  322,  323,  324,  325,  326
  327,  328,  329,  330,  331,  332,  333,  334,  335,  336,  337,  338,  339,  340,  341,  342
  343,  344,  345,  346,  347,  348,  349,  350,  351,  352,  353,  354,  355,  356,  357,  358
  359,  360,  361,  362,  363,  364,  365,  366,  367,  368,  369,  370,  371,  372,  373,  374
  375,  376,  377,  378,  379,  380,  381,  382,  383,  384,  385,  386,  387,  388,  389,  390
  391,  392,  393,  394,  395,  396,  397,  398,  399,  400,  401,  402,  403,  404,  405,  406
  407,  408,  409,  410,  411,  412,  413,  414,  415,  416,  417,  418,  419,  420,  421,  422
  423,  424,  425,  426,  427,  428,  429,  430,  431,  432,  433,  434,  435,  436,  437,  438
  439,  440,  441,  442,  443,  444,  445,  446,  447,  448,  449,  450,  451,  452,  453,  454
  455,  456,  457,  458,  459,  460,  461,  462,  463,  464,  465,  466,  467,  468,  469,  470
  471,  472,  473,  474,  475,  476,  477,  478,  479,  480,  491,  502,  503,  504,  505,  506
  507,  508,  509,  510,  511,  512,  513,  514,  515,  516,  517,  518,  519,  520,  521,  522
  523,  524,  525,  526,  527,  528,  529,  530,  531,  532,  533,  534,  535,  536,  537,  538
  539,  540,  541,  542,  543,  544,  545,  546,  547,  548,  549,  550,  551,  552,  553,  554
  555,  556,  557,  558,  559,  560,  561,  562,  563,  564,  565,  566,  567,  568,  569,  570
  571,  572,  573,  574,  575,  576,  577,  578,  579,  580,  581,  582,  583,  584,  585,  586
  587,  588,  589,  590,  591,  592,  593,  594,  595,  596,  597,  598,  599,  600,  601,  710
** ... 41 like lines cut
*Elset, elset=XsymmetryBCSet, instance=SubstrateInst
    10,    20,    30,    40,    50,    60,    70,    80,    90,   100,   110,   120,   130,   140,   150,   160
   170,   180,   190,   200,   210,   220,   230,   240,   250,   260,   270,   280,   290,   300,   310,   320
   330,   340,   350,   360,   370,   380,   390,   400,   410,   420,   430,   440,   450,   460,   470,   480
   490,   500,   510,   520,   530,   540,   550,   560,   570,   580,   590,   600,   610,   620,   630,   640
   650,   660,   670,   680,   690,   700,   710,   720,   730,   740,   750,   760,   770,   780,   790,   800
   810,   820,   830,   840,   850,   860,   870,   880,   890,   900,   910,   920,   930,   940,   950,   960
   970,   980,   990,  1000,  1010,  1020,  1030,  1040,  1050,  1060,  1070,  1080,  1090,  1100,  1110,  1120
  1130,  1140,  1150,  1160,  1170,  1180,  1190,  1200,  1210,  1220,  1230,  1240,  1250,  1260,  1270,  1280
  1290,  1300,  1310,  1320,  1330,  1340,  1350,  1360,  1370,  1380,  1390,  1400,  1410,  1420,  1430,  1440
  1450,  1460,  1470,  1480,  1490,  1500,  1510,  1520,  1530,  1540,  1550,  1560,  1570,  1580,  1590,  1600
  1610,  1620,  1630,  1640,  1650,  1660,  1670,  1680,  1690,  1700,  1710,  1720,  1730,  1740,  1750,  1760
  1770,  1780,  1790,  1800,  1810,  1820,  1830,  1840,  1850,  1860,  1870,  1880,  1890,  1900,  1910,  1920
  1930,  1940,  1950,  1960,  1970,  1980,  1990,  2000,  2010,  2020,  2030,  2040,  2050,  2060,  2070,  2080
  2090,  2100,  2110,  2120,  2130,  2140,  2150,  2160,  2170,  2180,  2190,  2200,  2210,  2220,  2230,  2240
  2250,  2260,  2270,  2280,  2290,  2300,  2310,  2320,  2330,  2340,  2350,  2360,  2370,  2380,  2390,  2400
  2410,  2420,  2430,  2440,  2450,  2460,  2470,  2480,  2490,  2500,  2510,  2520,  2530,  2540,  2550,  2560
  2570,  2580,  2590,  2600,  2610,  2620,  2630,  2640,  2650,  2660,  2670,  2680,  2690,  2700,  2710,  2720
  2730,  2740,  2750,  2760,  2770,  2780,  2790,  2800,  2810,  2820,  2830,  2840,  2850,  2860,  2870,  2880
  2890,  2900,  2910,  2920,  2930,  2940,  2950,  2960,  2970,  2980,  2990,  3000,  3010,  3020,  3030,  3040
  3050,  3060,  3070,  3080,  3090,  3100,  3110,  3120,  3130,  3140,  3150,  3160,  3170,  3180,  3190,  3200
** ... 33 like lines cut
*Nset, nset=contactRegionNodes, instance=SubstrateInst
    9,   10,   11,   12,  482,  483,  484,  485,  486,  487,  488,  489,  490,  493,  494,  495
  496,  497,  498,  499,  500,  501,  503,  504,  505,  506,  507,  508,  509,  510,  511,  512
  513,  514,  515,  516,  517,  518,  519,  520,  521,  522,  523,  524,  525,  526,  527,  528
  529,  530,  531,  532,  533,  534,  535,  536,  537,  538,  539,  540,  541,  542,  543,  544
  545,  546,  547,  548,  549,  550,  551,  552,  553,  554,  555,  556,  557,  558,  559,  560
  561,  562,  563,  564,  565,  566,  567,  568,  569,  570,  571,  572,  573,  574,  575,  576
  577,  578,  579,  580,  581,  582,  583,  584,  585,  586,  587,  588,  589,  590,  591,  592
  593,  594,  595,  596,  597,  598,  599,  600,  601,  602,  603,  604,  605,  606,  607,  608
  609,  610,  611,  612,  613,  614,  615,  616,  617,  618,  619,  620,  621,  622,  623,  624
  625,  626,  627,  628,  629,  630,  631,  632,  633,  634,  635,  636,  637,  638,  639,  640
  641,  642,  643,  644,  645,  646,  647,  648,  649,  650,  651,  652,  653,  654,  655,  656
  657,  658,  659,  660,  661,  662,  663,  664,  665,  666,  667,  668,  669,  670,  671,  672
  673,  674,  675,  676,  677,  678,  679,  680,  681,  682,  683,  684,  685,  686,  687,  688
  689,  690,  691,  692,  693,  694,  695,  696,  697,  698,  699,  700, 4101, 4102, 4103, 4104
 4105, 4106, 4107, 4108, 4109, 4110, 4111, 4112, 4113, 4114, 4115, 4116, 4117, 4118, 4119, 4120
 4121, 4122, 4123, 4124, 4125, 4126, 4127, 4128, 4129, 4130, 4131, 4132, 4133, 4134, 4135, 4136
 4137, 4138, 4139, 4140, 4141, 4142, 4143, 4144, 4145, 4146, 4147, 4148, 4149, 4150, 4151, 4152
 4153, 4154, 4155, 4156, 4157, 4158, 4159, 4160, 4161, 4162, 4163, 4164, 4165, 4166, 4167, 4168
 4169, 4170, 4171, 4172, 4173, 4174, 4175, 4176, 4177, 4178, 4179, 4180, 4181, 4182, 4183, 4184
 4185, 4186, 4187, 4188, 4189, 4190, 4191, 4192, 4193, 4194, 4195, 4196, 4197, 4198, 4199, 4200
** ... 50 like lines cut
*Elset, elset=_s_Surf-1_S5, internal, instance=SubstrateInst
 6011, 6012, 6013, 6014, 6015, 6016, 6017, 6018, 6019, 6020, 6031, 6032, 6033, 6034, 6035, 6036
 6037, 6038, 6039, 6040, 6051, 6052, 6053, 6054, 6055, 6056, 6057, 6058, 6059, 6060, 6071, 6072
 6073, 6074, 6075, 6076, 6077, 6078, 6079, 6080, 6091, 6092, 6093, 6094, 6095, 6096, 6097, 6098
 6099, 6100, 6111, 6112, 6113, 6114, 6115, 6116, 6117, 6118, 6119, 6120, 6131, 6132, 6133, 6134
 6135, 6136, 6137, 6138, 6139, 6140, 6151, 6152, 6153, 6154, 6155, 6156, 6157, 6158, 6159, 6160
 6171, 6172, 6173, 6174, 6175, 6176, 6177, 6178, 6179, 6180, 6191, 6192, 6193, 6194, 6195, 6196
 6197, 6198, 6199, 6200, 6211, 6212, 6213, 6214, 6215, 6216, 6217, 6218, 6219, 6220, 6231, 6232
 6233, 6234, 6235, 6236, 6237, 6238, 6239, 6240, 6251, 6252, 6253, 6254, 6255, 6256, 6257, 6258
 6259, 6260, 6271, 6272, 6273, 6274, 6275, 6276, 6277, 6278, 6279, 6280, 6291, 6292, 6293, 6294
 6295, 6296, 6297, 6298, 6299, 6300, 6311, 6312, 6313, 6314, 6315, 6316, 6317, 6318, 6319, 6320
 6331, 6332, 6333, 6334, 6335, 6336, 6337, 6338, 6339, 6340, 6351, 6352, 6353, 6354, 6355, 6356
 6357, 6358, 6359, 6360, 6371, 6372, 6373, 6374, 6375, 6376, 6377, 6378, 6379, 6380, 6391, 6392
 6393, 6394, 6395, 6396, 6397, 6398, 6399, 6400, 6411, 6412, 6413, 6414, 6415, 6416, 6417, 6418
 6419, 6420, 6431, 6432, 6433, 6434, 6435, 6436, 6437, 6438, 6439, 6440, 6451, 6452, 6453, 6454
 6455, 6456, 6457, 6458, 6459, 6460, 6471, 6472, 6473, 6474, 6475, 6476, 6477, 6478, 6479, 6480
 6491, 6492, 6493, 6494, 6495, 6496, 6497, 6498, 6499, 6500, 6511, 6512, 6513, 6514, 6515, 6516
 6517, 6518, 6519, 6520, 6531, 6532, 6533, 6534, 6535, 6536, 6537, 6538, 6539, 6540, 6551, 6552
 6553, 6554, 6555, 6556, 6557, 6558, 6559, 6560, 6571, 6572, 6573, 6574, 6575, 6576, 6577, 6578
 6579, 6580, 6591, 6592, 6593, 6594, 6595, 6596, 6597, 6598, 6599, 6600, 6611, 6612, 6613, 6614
 6615, 6616, 6617, 6618, 6619, 6620, 6631, 6632, 6633, 6634, 6635, 6636, 6637, 6638, 6639, 6640
** ... 43 like lines cut
*Surface, type=ELEMENT, name=s_Surf-1
_s_Surf-1_S5, S5
*End Assembly
** 
** ELEMENT CONTROLS
** 
*Section Controls, name=EC-1, ELEMENT DELETION=NO, MAX DEGRADATION=0.9, hourglass=RELAX STIFFNESS
1., 1., 1.
*Amplitude, name=Amp-Depth, time=TOTAL TIME
             0.,              0.,            0.05,              1.,            0.06,            -2.5,            0.56,            -2.5
*Amplitude, name=Amp-Length, time=TOTAL TIME
             0.,              0.,            0.05,              1.,            0.06,              1.,            0.56,              1.
** 
** MATERIALS
** 
*Material, name=SubstrateMaterial
*Density
 1.2e-09,
*Hyperelastic, mooney-rivlin
 0.3, 0.03, 0.05
** 
** INTERACTION PROPERTIES
** 
*Surface Interaction, name=IntProp-1
*Friction
 0.3,
*Surface Behavior, pressure-overclosure=HARD
** 
** INTERACTIONS
** 
** Interaction: Int-1
*Contact, op=NEW
*Contact Inclusions
RockwellIndenterInst.m_Surf-1 , s_Surf-1
*Contact Property Assignment
 ,  , IntProp-1
** ----------------------------------------------------------------
** 
** STEP: ScratchStep
** 
*Step, name=ScratchStep, nlgeom=YES
*Dynamic, Explicit
, 0.05
*Bulk Viscosity
0.06, 1.2
** Mass Scaling: Semi-Automatic
**               Whole Model
*Fixed Mass Scaling, factor=200.
** 
** BOUNDARY CONDITIONS
** 
** Name: Fixed_constraint Type: Symmetry/Antisymmetry/Encastre
*Boundary
FIXEDBCSET, ENCASTRE
** Name: IndenterConstraint Type: Displacement/Rotation
*Boundary
RockwellIndenterInst.RockwellIndenterSet, 1, 1
RockwellIndenterInst.RockwellIndenterSet, 4, 4
RockwellIndenterInst.RockwellIndenterSet, 5, 5
RockwellIndenterInst.RockwellIndenterSet, 6, 6
** Name: IndenterDepth Type: Displacement/Rotation
*Boundary, amplitude=Amp-Depth
RockwellIndenterInst.RockwellIndenterSet, 2, 2, -0.02
** Name: IndenterTravel Type: Displacement/Rotation
*Boundary, amplitude=Amp-Length
RockwellIndenterInst.RockwellIndenterSet, 3, 3, 2.
** Name: x_axis_symmetry Type: Symmetry/Antisymmetry/Encastre
*Boundary
XsymmetryBCSet, XSYMM
*Adaptive Mesh Controls, name=Ada-1, geometric enhancement=YES, smoothing objective=GRADED
1., 0., 0.
*Adaptive Mesh, elset=ALE_Domain, controls=Ada-1, frequency=20, op=NEW
** 
** INTERACTIONS
** 
** Interaction: Int-1
*Contact, op=NEW
*Contact Inclusions
RockwellIndenterInst.m_Surf-1 , s_Surf-1
*Contact Property Assignment
 ,  , IntProp-1
** 
** OUTPUT REQUESTS
** 
*Restart, write, number interval=1, time marks=NO
** 
** FIELD OUTPUT: ContactForce
** 
*Output, field, time interval=0.00125
*Contact Output
CFORCE, 
** 
** FIELD OUTPUT: FieldOutput
** 
*Node Output, nset=SubstrateInst.SubstrateSet
COORD, U
*Element Output, elset=SubstrateInst.SubstrateSet, directions=YES
COORD, LE, MISES, NE, PE, PEEQ, PRESS, S, SDEG, SDV, STATUS, TRIAX
*Contact Output, variable=PRESELECT
** 
** HISTORY OUTPUT: ReactionForces
** 
*Output, history, time interval=0.0005
*Node Output, nset=RockwellIndenterInst.RockwellIndenterSet
RF1, RF2, RF3
** 
** HISTORY OUTPUT: Energy
** 
*Energy Output, elset=SubstrateInst.SubstrateSet
ALLAE, ALLIE, ALLKE, ALLPW, ETOTAL
*End Step
** ----------------------------------------------------------------
** 
** STEP: UnloadStep
** 
*Step, name=UnloadStep, nlgeom=YES
*Dynamic, Explicit
, 0.01
*Bulk Viscosity
0.06, 1.2
*Adaptive Mesh, elset=ALE_Domain, controls=Ada-1, frequency=400, initial mesh sweeps=1, op=NEW
** 
** OUTPUT REQUESTS
** 
*Restart, write, number interval=1, time marks=NO
** 
** FIELD OUTPUT: FieldOutput
** 
*Output, field, time interval=0.00025
*Node Output, nset=SubstrateInst.SubstrateSet
COORD, U
*Element Output, elset=SubstrateInst.SubstrateSet, directions=YES
COORD, LE, MISES, NE, PE, PEEQ, PRESS, S, SDEG, SDV, STATUS, TRIAX
*Contact Output, variable=PRESELECT
*Output, history, frequency=0
*End Step
** ----------------------------------------------------------------
** 
** STEP: RecoveryStep
** 
*Step, name=RecoveryStep, nlgeom=YES
*Dynamic, Explicit
, 0.5
*Bulk Viscosity
0.06, 1.2
*Adaptive Mesh, elset=ALE_Domain, controls=Ada-1, frequency=1000, initial mesh sweeps=1, op=NEW
** 
** OUTPUT REQUESTS
** 
*Restart, write, number interval=1, time marks=NO
** 
** FIELD OUTPUT: FieldOutput
** 
*Output, field, time interval=0.025
*Node Output, nset=SubstrateInst.SubstrateSet
COORD, U
*Element Output, elset=SubstrateInst.SubstrateSet, directions=YES
COORD, LE, MISES, NE, PE, PEEQ, PRESS, S, SDEG, SDV, STATUS, TRIAX
*Contact Output, variable=PRESELECT
*Output, history, frequency=0
*End Step
