*Heading
** Job name: SingleScratch Model name: Model-1
** Generated by: Abaqus/CAE 2025
*Preprint, echo=NO, model=NO, history=NO, contact=NO
**
** PARTS
**
*Part, name=RockwellIndenter
*End Part
**  
*Part, name=Substrate
*Node
      1,  0.239999995,  0.439999998,         2.75
      2,           0.,  0.439999998,         2.75
      3,           0.,           0.,         2.75
      4,  0.239999995,           0.,         2.75
      5,  0.239999995,  0.439999998,         0.25
      6,           0.,  0.439999998,         0.25
      7,           0.,           0.,         0.25
      8,  0.239999995,           0.,         0.25
      9,  0.239999995,          0.5,         2.75
     10,           0.,          0.5,         2.75
     11,  0.239999995,          0.5,         0.25
     12,           0.,          0.5,         0.25
     13,  0.239999995,          0.5,           3.
     14,           0.,          0.5,           3.
     15,           0.,           0.,           3.
     16,  0.239999995,           0.,           3.
     17,  0.600000024,          0.5,         2.75
     18,  0.600000024,          0.5,           3.
     19,  0.600000024,           0.,           3.
     20,  0.600000024,           0.,         2.75
** ... 5020 like lines cut
*Element, type=C3D8R
   1,  188, 1211, 2975,  715,    1,   29,  675,   46
   2, 1211, 1212, 2976, 2975,   29,   30,  676,  675
   3, 1212, 1213, 2977, 2976,   30,   31,  677,  676
   4, 1213, 1214, 2978, 2977,   31,   32,  678,  677
   5, 1214, 1215, 2979, 2978,   32,   33,  679,  678
   6, 1215,  251,  963, 2979,   33,    2,   34,  679
   7,  715, 2975, 2980,  716,   46,  675,  680,   45
   8, 2975, 2976, 2981, 2980,  675,  676,  681,  680
   9, 2976, 2977, 2982, 2981,  676,  677,  682,  681
  10, 2977, 2978, 2983, 2982,  677,  678,  683,  682
  11, 2978, 2979, 2984, 2983,  678,  679,  684,  683
  12, 2979,  963,  964, 2984,  679,   34,   35,  684
  13,  716, 2980, 2985,  717,   45,  680,  685,   44
  14, 2980, 2981, 2986, 2985,  680,  681,  686,  685
  15, 2981, 2982, 2987, 2986,  681,  682,  687,  686
  16, 2982, 2983, 2988, 2987,  682,  683,  688,  687
  17, 2983, 2984, 2989, 2988,  683,  684,  689,  688
  18, 2984,  964,  965, 2989,  684,   35,   36,  689
  19,  717, 2985, 2990,  718,   44,  685,  690,   43
  20, 2985, 2986, 2991, 2990,  685,  686,  691,  690
** ... 3844 like lines cut
*Nset, nset=SubstrateSet, generate
    1,  5040,     1
*Elset, elset=SubstrateSet, generate
    1,  3864,     1
*Nset, nset=RefinedArea
    1,    2,    5,    6,    9,   10,   11,   12,   29,   30,   31,   32,   33,   47,   48,   49
   50,   51,  127,  128,  129,  130,  131,  132,  133,  134,  135,  136,  137,  138,  139,  140
  141,  142,  143,  144,  145,  146,  147,  148,  149,  150,  151,  152,  153,  154,  155,  156
  157,  158,  159,  160,  161,  162,  163,  164,  165,  166,  167,  168,  169,  170,  171,  172
  173,  174,  175,  176,  177,  178,  179,  180,  181,  182,  183,  184,  185,  186,  187,  188
  251,  252,  253,  254,  255,  256,  257,  258,  259,  260,  261,  262,  263,  264,  265,  266
  267,  268,  269,  270,  271,  272,  273,  274,  275,  276,  277,  278,  279,  280,  281,  282
  283,  284,  285,  286,  287,  288,  289,  290,  291,  292,  293,  294,  295,  296,  297,  298
  299,  300,  301,  302,  303,  304,  305,  306,  307,  308,  309,  310,  311,  312,  313,  314
  315,  316,  317,  318,  319,  320,  321,  322,  323,  324,  325,  326,  327,  328,  329,  330
  331,  332,  333,  334,  335,  336,  337,  338,  339,  340,  341,  342,  343,  344,  345,  346
  347,  348,  349,  350,  351,  352,  353,  354,  355,  356,  357,  358,  359,  360,  361,  362
  363,  364,  365,  366,  367,  368,  369,  370,  371,  372,  373,  374,  375,  376,  377,  378
  379,  380,  381,  382,  383,  384,  385,  386,  387,  388,  389,  390,  391,  392,  393,  394
  395,  396,  397,  398,  399,  400,  401,  402,  403,  404,  405,  406,  407,  408,  409,  410
  411,  412,  413,  414,  415,  416,  417,  418,  419,  420,  421,  422,  423,  424,  425,  426
  427,  428,  429,  430,  431,  432,  433,  434,  435,  436,  437,  438,  439,  440,  441,  442
  443,  444,  445,  446,  447,  448,  449,  450, 1211, 1212, 1213, 1214, 1215, 1216, 1217, 1218
 1219, 1220, 1221, 1222, 1223, 1224, 1225, 1226, 1227, 1228, 1229, 1230, 1231, 1232, 1233, 1234
 1235, 1236, 1237, 1238, 1239, 1240, 1241, 1242, 1243, 1244, 1245, 1246, 1247, 1248, 1249, 1250
** ... 64 like lines cut
*Elset, elset=RefinedArea, generate
 1891,  2646,     1
** Section: SubstrateSection
*Solid Section, elset=SubstrateSet, controls=EC-1, material=SubstrateMaterial
,
*End Part
**  
**
** ASSEMBLY
**
*Assembly, name=Assembly
**  
*Instance, name=RockwellIndenterInst, part=RockwellIndenter
          0.,          0.5,         0.25
*Node
      1, -3.67394056e-17,           0.,           0.
*Nset, nset=RockwellIndenterInst-RefPt_, internal
1, 
*Nset, nset=RockwellIndenterSet
 1,
*Surface, type=REVOLUTION, name=m_Surf-1
START, 0.533012701892219, 0.276794919243112
 LINE,          0.1, 0.0267949192431123
 CIRCL,           0.,           0.,           0.,          0.2
*Rigid Body, ref node=RockwellIndenterInst-RefPt_, analytical surface=m_Surf-1
*Element, type=MASS, elset=RockwellIndenterSet_IndenterInertia_
1, 1
*Mass, elset=RockwellIndenterSet_IndenterInertia_
1., 
*End Instance
**  
*Instance, name=SubstrateInst, part=Substrate
*End Instance
**  
*Nset, nset=ALE_Domain, instance=SubstrateInst, generate
    1,  5040,     1
*Elset, elset=ALE_Domain, instance=SubstrateInst, generate
    1,  3864,     1
*Nset, nset=FIXEDBCSET, instance=SubstrateInst
    3,    4,    7,    8,   15,   16,   19,   20,   22,   24,   25,   27,   38,   39,   40,   41
   42,   56,   57,   58,   59,   60,   65,   66,   67,   68,   69,   70,   71,   72,   73,   74
   75,   76,   77,   78,   79,   80,   81,   82,   83,   84,   85,   86,   87,   88,   89,   90
   91,   92,   93,   94,   95,   96,   97,   98,   99,  100,  101,  102,  103,  104,  105,  106
  107,  108,  109,  110,  111,  112,  113,  114,  115,  116,  117,  118,  119,  120,  121,  122
  123,  124,  125,  126,  189,  190,  191,  192,  193,  194,  195,  196,  197,  198,  199,  200
  201,  202,  203,  204,  205,  206,  207,  208,  209,  210,  211,  212,  213,  214,  215,  216
  217,  218,  219,  220,  221,  222,  223,  224,  225,  226,  227,  228,  229,  230,  231,  232
  233,  234,  235,  236,  237,  238,  239,  240,  241,  242,  243,  244,  245,  246,  247,  248
  249,  250,  462,  463,  464,  465,  466,  473,  474,  477,  478,  485,  486,  487,  488,  502
  516,  523,  524,  527,  528,  531,  532,  533,  534,  535,  536,  537,  538,  539,  540,  541
  542,  543,  544,  545,  546,  547,  548,  549,  550,  551,  552,  553,  554,  555,  556,  557
  558,  559,  560,  561,  562,  563,  564,  565,  566,  567,  568,  569,  570,  571,  572,  573
  574,  575,  576,  577,  578,  579,  580,  581,  582,  583,  584,  585,  586,  587,  588,  589
  590,  591,  592,  655,  656,  657,  658,  659,  660,  661, 1521, 1522, 1523, 1524, 1525, 1526
 1527, 1528, 1529, 1530, 1531, 1532, 1533, 1534, 1535, 1536, 1537, 1538, 1539, 1540, 1541, 1542
 1543, 1544, 1545, 1546, 1547, 1548, 1549, 1550, 1551, 1552, 1553, 1554, 1555, 1556, 1557, 1558
 1559, 1560, 1561, 1562, 1563, 1564, 1565, 1566, 1567, 1568, 1569, 1570, 1571, 1572, 1573, 1574
 1575, 1576, 1577, 1578, 1579, 1580, 1581, 1582, 1583, 1584, 1585, 1586, 1587, 1588, 1589, 1590
 1591, 1592, 1593, 1594, 1595, 1596, 1597, 1598, 1599, 1600, 1601, 1602, 1603, 1604, 1605, 1606
** ... 20 like lines cut
*Elset, elset=FIXEDBCSET, instance=SubstrateInst
   25,   26,   27,   28,   29,   30,   55,   56,   57,   58,   59,   60,   85,   86,   87,   88
   89,   90,  115,  116,  117,  118,  119,  120,  145,  146,  147,  148,  149,  150,  175,  176
  177,  178,  179,  180,  205,  206,  207,  208,  209,  210,  235,  236,  237,  238,  239,  240
  265,  266,  267,  268,  269,  270,  295,  296,  297,  298,  299,  300,  325,  326,  327,  328
  329,  330,  355,  356,  357,  358,  359,  360,  385,  386,  387,  388,  389,  390,  415,  416
  417,  418,  419,  420,  445,  446,  447,  448,  449,  450,  475,  476,  477,  478,  479,  480
  505,  506,  507,  508,  509,  510,  535,  536,  537,  538,  539,  540,  565,  566,  567,  568
  569,  570,  595,  596,  597,  598,  599,  600,  625,  626,  627,  628,  629,  630,  655,  656
  657,  658,  659,  660,  685,  686,  687,  688,  689,  690,  715,  716,  717,  718,  719,  720
  745,  746,  747,  748,  749,  750,  775,  776,  777,  778,  779,  780,  805,  806,  807,  808
  809,  810,  835,  836,  837,  838,  839,  840,  865,  866,  867,  868,  869,  870,  895,  896
  897,  898,  899,  900,  925,  926,  927,  928,  929,  930,  955,  956,  957,  958,  959,  960
  985,  986,  987,  988,  989,  990, 1015, 1016, 1017, 1018, 1019, 1020, 1045, 1046, 1047, 1048
 1049, 1050, 1075, 1076, 1077, 1078, 1079, 1080, 1105, 1106, 1107, 1108, 1109, 1110, 1135, 1136
 1137, 1138, 1139, 1140, 1165, 1166, 1167, 1168, 1169, 1170, 1195, 1196, 1197, 1198, 1199, 1200
 1225, 1226, 1227, 1228, 1229, 1230, 1255, 1256, 1257, 1258, 1259, 1260, 1285, 1286, 1287, 1288
 1289, 1290, 1315, 1316, 1317, 1318, 1319, 1320, 1345, 1346, 1347, 1348, 1349, 1350, 1375, 1376
 1377, 1378, 1379, 1380, 1405, 1406, 1407, 1408, 1409, 1410, 1435, 1436, 1437, 1438, 1439, 1440
 1465, 1466, 1467, 1468, 1469, 1470, 1495, 1496, 1497, 1498, 1499, 1500, 1525, 1526, 1527, 1528
 1529, 1530, 1555, 1556, 1557, 1558, 1559, 1560, 1585, 1586, 1587, 1588, 1589, 1590, 1615, 1616
** ... 15 like lines cut
*Nset, nset=XsymmetryBCSet, instance=SubstrateInst
    2,    3,    6,    7,   10,   12,   14,   15,   27,   28,   34,   35,   36,   37,   52,   53
   54,   55,  189,  190,  191,  192,  193,  194,  195,  196,  197,  198,  199,  200,  201,  202
  203,  204,  205,  206,  207,  208,  209,  210,  211,  212,  213,  214,  215,  216,  217,  218
  219,  220,  221,  222,  223,  224,  225,  226,  227,  228,  229,  230,  231,  232,  233,  234
  235,  236,  237,  238,  239,  240,  241,  242,  243,  244,  245,  246,  247,  248,  249,  250
  251,  252,  253,  254,  255,  256,  257,  258,  259,  260,  261,  262,  263,  264,  265,  266
  267,  268,  269,  270,  271,  272,  273,  274,  275,  276,  277,  278,  279,  280,  281,  282
  283,  284,  285,  286,  287,  288,  289,  290,  291,  292,  293,  294,  295,  296,  297,  298
  299,  300,  301,  302,  303,  304,  305,  306,  307,  308,  309,  310,  311,  312,  319,  326
  327,  328,  329,  330,  331,  332,  333,  334,  335,  336,  337,  338,  339,  340,  341,  342
  343,  344,  345,  346,  347,  348,  349,  350,  351,  352,  353,  354,  355,  356,  357,  358
  359,  360,  361,  362,  363,  364,  365,  366,  367,  368,  369,  370,  371,  372,  373,  374
  375,  376,  377,  378,  379,  380,  381,  382,  383,  384,  385,  386,  387,  388,  456,  457
  458,  459,  460,  461,  477,  478,  479,  480,  655,  656,  662,  663,  669,  670,  671,  672
  673,  674,  963,  964,  965,  966,  967,  968,  969,  970,  971,  972,  973,  974,  975,  976
  977,  978,  979,  980,  981,  982,  983,  984,  985,  986,  987,  988,  989,  990,  991,  992
  993,  994,  995,  996,  997,  998,  999, 1000, 1001, 1002, 1003, 1004, 1005, 1006, 1007, 1008
 1009, 1010, 1011, 1012, 1013, 1014, 1015, 1016, 1017, 1018, 1019, 1020, 1021, 1022, 1023, 1024
 1025, 1026, 1027, 1028, 1029, 1030, 1031, 1032, 1033, 1034, 1035, 1036, 1037, 1038, 1039, 1040
 1041, 1042, 1043, 1044, 1045, 1046, 1047, 1048, 1049, 1050, 1051, 1052, 1053, 1054, 1055, 1056
** ... 15 like lines cut
*Elset, elset=XsymmetryBCSet, instance=SubstrateInst
    6,   12,   18,   24,   30,   36,   42,   48,   54,   60,   66,   72,   78,   84,   90,   96
  102,  108,  114,  120,  126,  132,  138,  144,  150,  156,  162,  168,  174,  180,  186,  192
  198,  204,  210,  216,  222,  228,  234,  240,  246,  252,  258,  264,  270,  276,  282,  288
  294,  300,  306,  312,  318,  324,  330,  336,  342,  348,  354,  360,  366,  372,  378,  384
  390,  396,  402,  408,  414,  420,  426,  432,  438,  444,  450,  456,  462,  468,  474,  480
  486,  492,  498,  504,  510,  516,  522,  528,  534,  540,  546,  552,  558,  564,  570,  576
  582,  588,  594,  600,  606,  612,  618,  624,  630,  636,  642,  648,  654,  660,  666,  672
  678,  684,  690,  696,  702,  708,  714,  720,  726,  732,  738,  744,  750,  756,  762,  768
  774,  780,  786,  792,  798,  804,  810,  816,  822,  828,  834,  840,  846,  852,  858,  864
  870,  876,  882,  888,  894,  900,  906,  912,  918,  924,  930,  936,  942,  948,  954,  960
  966,  972,  978,  984,  990,  996, 1002, 1008, 1014, 1020, 1026, 1032, 1038, 1044, 1050, 1056
 1062, 1068, 1074, 1080, 1086, 1092, 1098, 1104, 1110, 1116, 1122, 1128, 1134, 1140, 1146, 1152
 1158, 1164, 1170, 1176, 1182, 1188, 1194, 1200, 1206, 1212, 1218, 1224, 1230, 1236, 1242, 1248
 1254, 1260, 1266, 1272, 1278, 1284, 1290, 1296, 1302, 1308, 1314, 1320, 1326, 1332, 1338, 1344
 1350, 1356, 1362, 1368, 1374, 1380, 1386, 1392, 1398, 1404, 1410, 1416, 1422, 1428, 1434, 1440
 1446, 1452, 1458, 1464, 1470, 1476, 1482, 1488, 1494, 1500, 1506, 1512, 1518, 1524, 1530, 1536
 1542, 1548, 1554, 1560, 1566, 1572, 1578, 1584, 1590, 1596, 1602, 1608, 1614, 1620, 1626, 1632
 1638, 1644, 1650, 1656, 1662, 1668, 1674, 1680, 1686, 1692, 1698, 1704, 1710, 1716, 1722, 1728
 1734, 1740, 1746, 1752, 1758, 1764, 1770, 1776, 1782, 1788, 1794, 1800, 1806, 1812, 1818, 1824
 1830, 1836, 1842, 1848, 1854, 1860, 1866, 1872, 1878, 1884, 1890, 1891, 1897, 1903, 1909, 1915
** ... 11 like lines cut
*Nset, nset=contactRegionNodes, instance=SubstrateInst
    9,   10,   11,   12,  314,  315,  316,  317,  318,  321,  322,  323,  324,  325,  327,  328
  329,  330,  331,  332,  333,  334,  335,  336,  337,  338,  339,  340,  341,  342,  343,  344
  345,  346,  347,  348,  349,  350,  351,  352,  353,  354,  355,  356,  357,  358,  359,  360
  361,  362,  363,  364,  365,  366,  367,  368,  369,  370,  371,  372,  373,  374,  375,  376
  377,  378,  379,  380,  381,  382,  383,  384,  385,  386,  387,  388,  389,  390,  391,  392
  393,  394,  395,  396,  397,  398,  399,  400,  401,  402,  403,  404,  405,  406,  407,  408
  409,  410,  411,  412,  413,  414,  415,  416,  417,  418,  419,  420,  421,  422,  423,  424
  425,  426,  427,  428,  429,  430,  431,  432,  433,  434,  435,  436,  437,  438,  439,  440
  441,  442,  443,  444,  445,  446,  447,  448,  449,  450, 1965, 1966, 1967, 1968, 1969, 1970
 1971, 1972, 1973, 1974, 1975, 1976, 1977, 1978, 1979, 1980, 1981, 1982, 1983, 1984, 1985, 1986
 1987, 1988, 1989, 1990, 1991, 1992, 1993, 1994, 1995, 1996, 1997, 1998, 1999, 2000, 2001, 2002
 2003, 2004, 2005, 2006, 2007, 2008, 2009, 2010, 2011, 2012, 2013, 2014, 2015, 2016, 2017, 2018
 2019, 2020, 2021, 2022, 2023, 2024, 2025, 2026, 2027, 2028, 2029, 2030, 2031, 2032, 2033, 2034
 2035, 2036, 2037, 2038, 2039, 2040, 2041, 2042, 2043, 2044, 2045, 2046, 2047, 2048, 2049, 2050
 2051, 2052, 2053, 2054, 2055, 2056, 2057, 2058, 2059, 2060, 2061, 2062, 2063, 2064, 2065, 2066
 2067, 2068, 2069, 2070, 2071, 2072, 2073, 2074, 2075, 2076, 2077, 2078, 2079, 2080, 2081, 2082
 2083, 2084, 2085, 2086, 2087, 2088, 2089, 2090, 2091, 2092, 2093, 2094, 2095, 2096, 2097, 2098
 2099, 2100, 2101, 2102, 2103, 2104, 2105, 2106, 2107, 2108, 2109, 2110, 2111, 2112, 2113, 2114
 2115, 2116, 2117, 2118, 2119, 2120, 2121, 2122, 2123, 2124, 2125, 2126, 2127, 2128, 2129, 2130
 2131, 2132, 2133, 2134, 2135, 2136, 2137, 2138, 2139, 2140, 2141, 2142, 2143, 2144, 2145, 2146
** ... 8 like lines cut
*Elset, elset=_s_Surf-1_S5, internal, instance=SubstrateInst
 1897, 1898, 1899, 1900, 1901, 1902, 1909, 1910, 1911, 1912, 1913, 1914, 1921, 1922, 1923, 1924
 1925, 1926, 1933, 1934, 1935, 1936, 1937, 1938, 1945, 1946, 1947, 1948, 1949, 1950, 1957, 1958
 1959, 1960, 1961, 1962, 1969, 1970, 1971, 1972, 1973, 1974, 1981, 1982, 1983, 1984, 1985, 1986
 1993, 1994, 1995, 1996, 1997, 1998, 2005, 2006, 2007, 2008, 2009, 2010, 2017, 2018, 2019, 2020
 2021, 2022, 2029, 2030, 2031, 2032, 2033, 2034, 2041, 2042, 2043, 2044, 2045, 2046, 2053, 2054
 2055, 2056, 2057, 2058, 2065, 2066, 2067, 2068, 2069, 2070, 2077, 2078, 2079, 2080, 2081, 2082
 2089, 2090, 2091, 2092, 2093, 2094, 2101, 2102, 2103, 2104, 2105, 2106, 2113, 2114, 2115, 2116
 2117, 2118, 2125, 2126, 2127, 2128, 2129, 2130, 2137, 2138, 2139, 2140, 2141, 2142, 2149, 2150
 2151, 2152, 2153, 2154, 2161, 2162, 2163, 2164, 2165, 2166, 2173, 2174, 2175, 2176, 2177, 2178
 2185, 2186, 2187, 2188, 2189, 2190, 2197, 2198, 2199, 2200, 2201, 2202, 2209, 2210, 2211, 2212
 2213, 2214, 2221, 2222, 2223, 2224, 2225, 2226, 2233, 2234, 2235, 2236, 2237, 2238, 2245, 2246
 2247, 2248, 2249, 2250, 2257, 2258, 2259, 2260, 2261, 2262, 2269, 2270, 2271, 2272, 2273, 2274
 2281, 2282, 2283, 2284, 2285, 2286, 2293, 2294, 2295, 2296, 2297, 2298, 2305, 2306, 2307, 2308
 2309, 2310, 2317, 2318, 2319, 2320, 2321, 2322, 2329, 2330, 2331, 2332, 2333, 2334, 2341, 2342
 2343, 2344, 2345, 2346, 2353, 2354, 2355, 2356, 2357, 2358, 2365, 2366, 2367, 2368, 2369, 2370
 2377, 2378, 2379, 2380, 2381, 2382, 2389, 2390, 2391, 2392, 2393, 2394, 2401, 2402, 2403, 2404
 2405, 2406, 2413, 2414, 2415, 2416, 2417, 2418, 2425, 2426, 2427, 2428, 2429, 2430, 2437, 2438
 2439, 2440, 2441, 2442, 2449, 2450, 2451, 2452, 2453, 2454, 2461, 2462, 2463, 2464, 2465, 2466
 2473, 2474, 2475, 2476, 2477, 2478, 2485, 2486, 2487, 2488, 2489, 2490, 2497, 2498, 2499, 2500
 2501, 2502, 2509, 2510, 2511, 2512, 2513, 2514, 2521, 2522, 2523, 2524, 2525, 2526, 2533, 2534
** ... 4 like lines cut
*Surface, type=ELEMENT, name=s_Surf-1
_s_Surf-1_S5, S5
*End Assembly
** 
** ELEMENT CONTROLS
** 
*Section Controls, name=EC-1, ELEMENT DELETION=NO, MAX DEGRADATION=0.9, hourglass=RELAX STIFFNESS
1., 1., 1.
*Amplitude, name=Amp-Depth, time=TOTAL TIME
             0.,              0.,            0.01,              1.,            1.01,              1.,            1.02, -0.833333333333333
           1.52, -0.833333333333333
*Amplitude, name=Amp-Length, time=TOTAL TIME
             0.,              0.,            0.01,              0.,            1.01,              1.,            1.02,              1.
           1.52,              1.
** 
** MATERIALS
** 
*Material, name=SubstrateMaterial
*Density
 1.2e-09,
*Hyperelastic, mooney-rivlin
300.,  30., 0.01
** 
** INTERACTION PROPERTIES
** 
*Surface Interaction, name=IntProp-1
*Friction
 0.3,
*Surface Behavior, pressure-overclosure=HARD
** 
** INTERACTIONS
** 
** Interaction: Int-1
*Contact, op=NEW
*Contact Inclusions
RockwellIndenterInst.m_Surf-1 , s_Surf-1
*Contact Property Assignment
 ,  , IntProp-1
** ----------------------------------------------------------------
** 
** STEP: IndentationStep
** 
*Step, name=IndentationStep, nlgeom=YES
*Dynamic, Explicit
, 0.01
*Bulk Viscosity
0.06, 1.2
** Mass Scaling: Semi-Automatic
**               Whole Model
*Fixed Mass Scaling, factor=500.
** 
** BOUNDARY CONDITIONS
** 
** Name: Fixed_constraint Type: Symmetry/Antisymmetry/Encastre
*Boundary
FIXEDBCSET, ENCASTRE
** Name: IndenterConstraint Type: Displacement/Rotation
*Boundary
RockwellIndenterInst.RockwellIndenterSet, 1, 1
RockwellIndenterInst.RockwellIndenterSet, 4, 4
RockwellIndenterInst.RockwellIndenterSet, 5, 5
RockwellIndenterInst.RockwellIndenterSet, 6, 6
** Name: IndenterDepth Type: Displacement/Rotation
*Boundary, amplitude=Amp-Depth
RockwellIndenterInst.RockwellIndenterSet, 2, 2, -0.06
** Name: IndenterTravel Type: Displacement/Rotation
*Boundary, amplitude=Amp-Length
RockwellIndenterInst.RockwellIndenterSet, 3, 3, 2.
** Name: x_axis_symmetry Type: Symmetry/Antisymmetry/Encastre
*Boundary
XsymmetryBCSet, XSYMM
*Adaptive Mesh Controls, name=Ada-1, geometric enhancement=YES, smoothing objective=GRADED
1., 0., 0.
*Adaptive Mesh, elset=ALE_Domain, controls=Ada-1, frequency=20, op=NEW
** 
** INTERACTIONS
** 
** Interaction: Int-1
*Contact, op=NEW
*Contact Inclusions
RockwellIndenterInst.m_Surf-1 , s_Surf-1
*Contact Property Assignment
 ,  , IntProp-1
** 
** OUTPUT REQUESTS
** 
*Restart, write, number interval=1, time marks=NO
** 
** FIELD OUTPUT: FieldOutput
** 
*Output, field, time interval=0.001
*Node Output, nset=SubstrateInst.SubstrateSet
COORD, U
*Element Output, elset=SubstrateInst.SubstrateSet, directions=YES
COORD, LE, MISES, NE, PE, PEEQ, PRESS, S, SDEG, SDV, STATUS, TRIAX
*Contact Output, variable=PRESELECT
** 
** FIELD OUTPUT: ContactForce
** 
*Output, field, time interval=0.025
*Contact Output
CFORCE, 
** 
** HISTORY OUTPUT: EnergyBalance
** 
*Output, history, time interval=0.01
*Energy Output
ETOTAL, 
** 
** HISTORY OUTPUT: ReactionForces
** 
*Node Output, nset=RockwellIndenterInst.RockwellIndenterSet
RF1, RF2, RF3
** 
** HISTORY OUTPUT: Energy
** 
*Energy Output, elset=SubstrateInst.SubstrateSet
ALLAE, ALLIE, ALLKE, ALLPW
*End Step
** ----------------------------------------------------------------
** 
** STEP: ScratchStep
** 
*Step, name=ScratchStep, nlgeom=YES
*Dynamic, Explicit
, 1.
*Bulk Viscosity
0.06, 1.2
** Mass Scaling: Semi-Automatic
**               Whole Model
*Fixed Mass Scaling, factor=500.
*Adaptive Mesh, elset=ALE_Domain, controls=Ada-1, frequency=20, op=NEW
** 
** OUTPUT REQUESTS
** 
*Restart, write, number interval=1, time marks=NO
** 
** FIELD OUTPUT: FieldOutput
** 
*Output, field, time interval=0.001
*Node Output, nset=SubstrateInst.SubstrateSet
COORD, U
*Element Output, elset=SubstrateInst.SubstrateSet, directions=YES
COORD, LE, MISES, NE, PE, PEEQ, PRESS, S, SDEG, SDV, STATUS, TRIAX
*Contact Output, variable=PRESELECT
** 
** FIELD OUTPUT: ContactForce
** 
*Output, field, time interval=0.025
*Contact Output
CFORCE, 
** 
** HISTORY OUTPUT: EnergyBalance
** 
*Output, history, time interval=0.01
*Energy Output
ETOTAL, 
** 
** HISTORY OUTPUT: ReactionForces
** 
*Node Output, nset=RockwellIndenterInst.RockwellIndenterSet
RF1, RF2, RF3
** 
** HISTORY OUTPUT: Energy
** 
*Energy Output, elset=SubstrateInst.SubstrateSet
ALLAE, ALLIE, ALLKE, ALLPW
*End Step
** ----------------------------------------------------------------
** 
** STEP: UnloadStep
** 
*Step, name=UnloadStep, nlgeom=YES
*Dynamic, Explicit
, 0.01
*Bulk Viscosity
0.06, 1.2
*Adaptive Mesh, elset=ALE_Domain, controls=Ada-1, frequency=400, initial mesh sweeps=1, op=NEW
** 
** OUTPUT REQUESTS
** 
*Restart, write, number interval=1, time marks=NO
** 
** FIELD OUTPUT: FieldOutput
** 
*Output, field, time interval=0.00025
*Node Output, nset=SubstrateInst.SubstrateSet
COORD, U
*Element Output, elset=SubstrateInst.SubstrateSet, directions=YES
COORD, LE, MISES, NE, PE, PEEQ, PRESS, S, SDEG, SDV, STATUS, TRIAX
*Contact Output, variable=PRESELECT
*Output, history, frequency=0
*End Step
** ----------------------------------------------------------------
** 
** STEP: RecoveryStep
** 
*Step, name=RecoveryStep, nlgeom=YES
*Dynamic, Explicit
, 0.5
*Bulk Viscosity
0.06, 1.2
*Adaptive Mesh, elset=ALE_Domain, controls=Ada-1, frequency=1000, initial mesh sweeps=1, op=NEW
** 
** OUTPUT REQUESTS
** 
*Restart, write, number interval=1, time marks=NO
** 
** FIELD OUTPUT: FieldOutput
** 
*Output, field, time interval=0.025
*Node Output, nset=SubstrateInst.SubstrateSet
COORD, U
*Element Output, elset=SubstrateInst.SubstrateSet, directions=YES
COORD, LE, MISES, NE, PE, PEEQ, PRESS, S, SDEG, SDV, STATUS, TRIAX
*Contact Output, variable=PRESELECT
*Output, history, frequency=0
*End Step
